/*--------------------------------*- C++ -*----------------------------------*\
| =========                 |                                                 |
| \\      /  F ield         | OpenFOAM: The Open Source CFD Toolbox           |
|  \\    /   O peration     | Version:  3.0.1                                 |
|   \\  /    A nd           | Web:      www.OpenFOAM.org                      |
|    \\/     M anipulation  |                                                 |
\*---------------------------------------------------------------------------*/
FoamFile
{
    version     2.0;
    format      ascii;
    class       dictionary;
    location    "constant";
    object      parameters;
}
// * * * * * * * * * * * * * * * * * * * * * * * * * * * * * * * * * * * * * //

D1 D1  [0 2 -1 0 0 0 0] 2.085e-5;
D2 D2  [0 2 -1 0 0 0 0] 2.13e-10;
H            33;


// ************************************************************************* //
